visualization_results/voltage_data.csv
Bus,Phase,Voltage (pu),Angle (deg)
sourcebus,Phase 1,0.9998877258266409,-0.006283753918653605
sourcebus,Phase 2,0.9998877258266416,-120.00628375393138
sourcebus,Phase 3,0.9998877258266581,119.99371622672543
subbus,Phase 1,0.9898606144059329,-30.713064826367354
subbus,Phase 2,0.9898606145030986,-150.7130648166463
subbus,Phase 3,0.9898606145030863,89.2869351639989
loadbus,Phase 1,0.8264732366031912,-37.51926058211052
loadbus,Phase 2,0.8264732366811771,-157.51926057244006
loadbus,Phase 3,0.8264732366816657,82.48073940810933
